data_crystal

_cell_length_a 27.43863
_cell_length_b 28.97701
_cell_length_c 30.93260
_cell_angle_alpha 61.07821
_cell_angle_beta  118.63018
_cell_angle_gamma 133.20643

_symmetry_space_group_name_	'P 1'
_symmetry_space_group_name_H-M	'P 1'

loop_
_symmetry_equiv_pos_as_xyz
  x,y,z

loop_
_atom_site_label
_atom_site_type_symbol
_atom_site_fract_x
_atom_site_fract_y
_atom_site_fract_z
_atom_site_charge
C 	C 	0.75991 0.33329 0.04929 0.20200
N 	N 	0.69303 0.28301 0.05082 -0.11500
C 	C 	0.65605 0.28872 0.06268 0.21200
N 	N 	0.68556 0.34477 0.07253 -0.11700
C 	C 	0.75256 0.39471 0.07224 0.20000
N 	N 	0.79012 0.38911 0.06062 -0.13500
C 	C 	0.74240 0.32981 0.53503 0.20700
N 	N 	0.68474 0.27933 0.55329 -0.11900
C 	C 	0.65175 0.29139 0.56325 0.20600
N 	N 	0.67603 0.35358 0.55480 -0.13500
C 	C 	0.73301 0.40421 0.53619 0.20400
N 	N 	0.76672 0.39251 0.52644 -0.10900
C 	C 	0.27589 0.64155 0.25033 0.20200
N 	N 	0.23996 0.58394 0.23900 -0.11800
C 	C 	0.27371 0.56924 0.23301 0.20300
N 	N 	0.34279 0.61141 0.23900 -0.12300
C 	C 	0.37842 0.66922 0.24901 0.20600
N 	N 	0.34509 0.68448 0.25467 -0.12100
C 	C 	0.26287 0.64549 0.75775 0.19900
N 	N 	0.21753 0.58030 0.75991 -0.10500
C 	C 	0.23104 0.55241 0.74645 0.20600
N 	N 	0.28887 0.58959 0.73031 -0.11600
C 	C 	0.33684 0.65308 0.73199 0.19500
N 	N 	0.32344 0.68159 0.74493 -0.13700
Co	Co	0.08738 0.96009 0.17049 1.18900
Co	Co	0.93869 0.00077 0.12368 1.19400
Co	Co	0.05957 0.02630 0.21014 1.18900
Co	Co	0.97050 0.93990 0.08219 1.19100
C 	C 	0.06093 0.82851 0.20351 0.35900
Co	Co	0.04884 0.88623 0.09351 1.17500
Co	Co	0.96744 0.06471 0.20278 1.18700
C 	C 	0.02390 0.97037 0.99561 0.28500
O 	O 	0.06748 0.11864 0.24371 -0.38600
O 	O 	0.99217 0.03067 0.17570 -0.75100
C 	C 	0.12004 0.15331 0.22429 0.35900
O 	O 	0.12210 0.00334 0.22444 -0.42900
O 	O 	0.90576 0.95975 0.06883 -0.44000
C 	C 	0.94862 0.12557 0.09275 0.35400
O 	O 	0.02905 0.00364 0.13658 -0.56700
C 	C 	0.99867 0.98124 0.29668 0.29700
C 	C 	0.19375 0.99266 0.13357 0.33800
C 	C 	0.89797 0.80655 0.07658 0.35500
O 	O 	0.12964 0.12522 0.20894 -0.36400
O 	O 	0.15167 0.93117 0.13189 -0.37000
O 	O 	0.17819 0.01590 0.14874 -0.36500
O 	O 	0.98910 0.13772 0.13738 -0.36900
O 	O 	0.93067 0.07855 0.07785 -0.36000
O 	O 	0.94893 0.98719 0.26555 -0.34500
O 	O 	0.02995 0.97420 0.28033 -0.36600
O 	O 	0.94661 0.83578 0.05479 -0.39600
O 	O 	0.90188 0.83895 0.09810 -0.36700
O 	O 	0.03836 0.93684 0.11535 -0.75800
C 	C 	0.83163 0.94809 0.16986 0.34600
O 	O 	0.86469 0.01002 0.16573 -0.36600
O 	O 	0.85603 0.93016 0.15810 -0.38600
O 	O 	0.02326 0.81448 0.15915 -0.35200
O 	O 	0.06650 0.86932 0.21698 -0.36500
O 	O 	0.07178 0.96278 0.02992 -0.37900
O 	O 	0.98450 0.97149 0.00856 -0.34900
Co	Co	0.07923 0.97255 0.66784 1.19100
Co	Co	0.90778 0.98457 0.61274 1.19300
Co	Co	0.02976 0.02813 0.69811 1.18900
Co	Co	0.96596 0.94413 0.57594 1.19300
C 	C 	0.06522 0.84547 0.70712 0.35000
Co	Co	0.06153 0.90363 0.59773 1.17500
Co	Co	0.91236 0.03668 0.68817 1.17900
C 	C 	0.03427 0.98202 0.49641 0.28200
O 	O 	0.99265 0.13235 0.66706 -0.34200
O 	O 	0.95386 0.01643 0.66369 -0.75000
C 	C 	0.05670 0.15352 0.69205 0.34500
O 	O 	0.10412 0.01752 0.71679 -0.42300
O 	O 	0.89054 0.95269 0.55776 -0.42500
C 	C 	0.86774 0.07289 0.57613 0.36500
O 	O 	0.00923 0.00428 0.62862 -0.56600
C 	C 	0.98525 0.99159 0.78828 0.29200
C 	C 	0.19849 0.01489 0.64075 0.36600
C 	C 	0.90913 0.81520 0.57119 0.36300
O 	O 	0.08387 0.12573 0.69783 -0.34700
O 	O 	0.16195 0.95374 0.64029 -0.36400
O 	O 	0.17351 0.03516 0.64901 -0.35900
O 	O 	0.84630 0.04041 0.61802 -0.37900
O 	O 	0.89813 0.06003 0.56583 -0.34500
O 	O 	0.97312 0.03547 0.76163 -0.38600
O 	O 	0.99708 0.97150 0.76624 -0.37300
O 	O 	0.96377 0.84788 0.55502 -0.39600
O 	O 	0.90408 0.84317 0.59049 -0.38100
O 	O 	0.03671 0.94719 0.61362 -0.76100
C 	C 	0.79705 0.90302 0.67235 0.35000
O 	O 	0.83889 0.93741 0.70691 -0.39000
O 	O 	0.82114 0.90337 0.64348 -0.36000
O 	O 	0.03235 0.83167 0.66252 -0.38900
O 	O 	0.06620 0.88545 0.71784 -0.35800
O 	O 	0.08405 0.97906 0.53316 -0.37800
O 	O 	0.99039 0.98115 0.50553 -0.34000
C 	C 	0.99910 0.97562 0.84456 -0.05600
C 	C 	0.06272 0.02172 0.87052 -0.01400
C 	C 	0.06998 0.02360 0.91804 0.04600
C 	C 	0.01370 0.97717 0.94143 -0.06800
C 	C 	0.95100 0.92918 0.91661 -0.00400
C 	C 	0.94362 0.92791 0.86876 0.03400
S 	S 	0.14865 0.08679 0.94629 0.04400
S 	S 	0.86424 0.86678 0.83926 0.02800
H 	H 	0.82304 0.88751 0.81124 0.05900
H 	H 	0.19001 0.06662 0.97796 0.05700
H 	H 	0.10541 0.05924 0.85209 0.06200
H 	H 	0.90823 0.89183 0.93496 0.06300
C 	C 	0.01342 0.97437 0.35172 -0.06800
C 	C 	0.07356 0.02713 0.37318 -0.00600
C 	C 	0.07965 0.03197 0.41900 0.04200
C 	C 	0.02522 0.98317 0.44434 -0.05700
C 	C 	0.96616 0.92938 0.42378 -0.01700
C 	C 	0.96053 0.92414 0.37840 0.05800
S 	S 	0.15421 0.10097 0.44273 0.05400
S 	S 	0.88804 0.85328 0.35637 0.04200
H 	H 	0.83544 0.85952 0.32839 0.08500
H 	H 	0.20124 0.08810 0.47600 0.06100
H 	H 	0.11429 0.06625 0.35293 0.08100
H 	H 	0.92527 0.89055 0.44382 0.09500
C 	C 	0.14354 0.32415 0.69117 -0.14200
C 	C 	0.13499 0.31326 0.73730 0.02400
C 	C 	0.11339 0.25231 0.77227 0.30800
C 	C 	0.09720 0.20196 0.75998 -0.06000
C 	C 	0.09931 0.21099 0.71187 -0.13100
C 	C 	0.12536 0.27313 0.67836 0.38700
C 	C 	0.14709 0.36530 0.74816 0.01100
F 	F 	0.10474 0.24083 0.81700 -0.39500
H 	H 	0.07800 0.15440 0.78639 0.09400
F 	F 	0.12889 0.28295 0.63205 -0.40000
H 	H 	0.16204 0.37154 0.66454 0.13500
C 	C 	0.19955 0.39253 0.78926 0.32800
C 	C 	0.21911 0.44924 0.79387 -0.07400
C 	C 	0.18924 0.48124 0.75606 -0.06300
C 	C 	0.13168 0.45002 0.71838 0.35500
C 	C 	0.11058 0.39212 0.71451 -0.12800
F 	F 	0.23501 0.36698 0.82249 -0.38200
H 	H 	0.26257 0.47219 0.82384 0.13700
F 	F 	0.10032 0.47893 0.68271 -0.40600
H 	H 	0.06837 0.37014 0.68371 0.13400
C 	C 	0.48989 0.68488 0.72167 -0.11700
C 	C 	0.52903 0.75234 0.70074 0.01000
C 	C 	0.50626 0.78814 0.69173 0.30600
C 	C 	0.44419 0.75614 0.70285 -0.07700
C 	C 	0.40547 0.68856 0.72439 -0.07500
C 	C 	0.43018 0.65360 0.73529 0.35600
C 	C 	0.59596 0.78574 0.69144 0.02200
F 	F 	0.54453 0.85382 0.67280 -0.40800
H 	H 	0.42606 0.78377 0.69433 0.11400
F 	F 	0.39686 0.58940 0.75989 -0.40900
H 	H 	0.50683 0.65684 0.72865 0.14500
C 	C 	0.64617 0.77828 0.73096 0.28700
C 	C 	0.70912 0.80953 0.72216 -0.04900
C 	C 	0.72467 0.85215 0.67503 -0.14000
C 	C 	0.67329 0.85676 0.63467 0.37700
C 	C 	0.60890 0.82313 0.64276 -0.13200
F 	F 	0.63492 0.74274 0.77836 -0.40700
H 	H 	0.74765 0.80398 0.75301 0.09800
F 	F 	0.68713 0.89694 0.58854 -0.42700
H 	H 	0.56974 0.82741 0.61158 0.14500
C 	C 	0.19137 0.67584 0.81204 -0.11200
C 	C 	0.19643 0.73163 0.77603 0.01100
C 	C 	0.22857 0.76202 0.73646 0.30800
C 	C 	0.25279 0.73529 0.73187 -0.07700
C 	C 	0.24462 0.67763 0.76637 -0.07000
C 	C 	0.21511 0.64877 0.80721 0.35700
C 	C 	0.16131 0.75387 0.77627 0.01900
F 	F 	0.23366 0.81583 0.70120 -0.40900
H 	H 	0.27568 0.75814 0.70039 0.11300
F 	F 	0.20913 0.59442 0.84204 -0.40200
H 	H 	0.16741 0.65245 0.84299 0.14300
C 	C 	0.08915 0.71529 0.76451 0.29400
C 	C 	0.05578 0.74288 0.75083 -0.04800
C 	C 	0.09415 0.80970 0.74690 -0.13700
C 	C 	0.16549 0.84474 0.76716 0.38500
C 	C 	0.19921 0.81731 0.78094 -0.12200
F 	F 	0.05146 0.65286 0.76208 -0.39800
H 	H 	0.00029 0.71425 0.73778 0.10900
F 	F 	0.20281 0.90737 0.76888 -0.40300
H 	H 	0.25483 0.84659 0.79229 0.15100
C 	C 	0.23821 0.45830 0.17599 -0.11700
C 	C 	0.20392 0.39800 0.21003 0.01500
C 	C 	0.18005 0.39246 0.24491 0.30700
C 	C 	0.19660 0.44815 0.24898 -0.07700
C 	C 	0.23594 0.50939 0.21770 -0.07100
C 	C 	0.25253 0.51332 0.17891 0.35900
C 	C 	0.19617 0.34165 0.21087 0.02000
F 	F 	0.14273 0.33358 0.27585 -0.40700
H 	H 	0.18228 0.44424 0.27834 0.11600
F 	F 	0.28691 0.57161 0.14627 -0.39600
H 	H 	0.25584 0.46304 0.14837 0.15100
C 	C 	0.16293 0.31886 0.16685 0.30200
C 	C 	0.14966 0.26168 0.16940 -0.05200
C 	C 	0.16481 0.22442 0.21637 -0.13800
C 	C 	0.20491 0.25105 0.25896 0.38200
C 	C 	0.22093 0.30971 0.25610 -0.13000
F 	F 	0.13990 0.34979 0.12243 -0.38600
H 	H 	0.12156 0.24304 0.13577 0.12800
F 	F 	0.22291 0.21710 0.30424 -0.42500
H 	H 	0.24978 0.32869 0.28963 0.14100
C 	C 	0.53533 0.80545 0.19663 -0.11900
C 	C 	0.57890 0.78622 0.22884 0.01100
C 	C 	0.56060 0.73525 0.27257 0.31500
C 	C 	0.49720 0.70116 0.28228 -0.07700
C 	C 	0.45144 0.71743 0.24823 -0.07300
C 	C 	0.47190 0.77137 0.20637 0.36100
C 	C 	0.64523 0.82174 0.21809 0.02700
F 	F 	0.60342 0.71762 0.30488 -0.40200
H 	H 	0.48198 0.65977 0.31480 0.11700
F 	F 	0.42843 0.78803 0.17331 -0.40000
H 	H 	0.55008 0.84603 0.16357 0.13600
C 	C 	0.64829 0.80951 0.18099 0.29500
C 	C 	0.71067 0.84796 0.16760 -0.04700
C 	C 	0.76996 0.89919 0.19079 -0.14300
C 	C 	0.76709 0.90916 0.22957 0.37500
C 	C 	0.70514 0.87033 0.24321 -0.14300
F 	F 	0.59061 0.76160 0.15707 -0.39400
H 	H 	0.71217 0.83977 0.13772 0.10700
F 	F 	0.82388 0.95815 0.25272 -0.44900
H 	H 	0.70323 0.87938 0.27232 0.13500
C 	C 	0.15673 0.68268 0.22016 -0.12700
C 	C 	0.18166 0.70538 0.26251 0.00900
C 	C 	0.23431 0.70255 0.30250 0.32500
C 	C 	0.26353 0.67971 0.29913 -0.07900
C 	C 	0.23983 0.65864 0.25615 -0.07100
C 	C 	0.18548 0.65926 0.21701 0.35600
C 	C 	0.15431 0.73455 0.26367 0.02400
F 	F 	0.25756 0.72246 0.34435 -0.39000
H 	H 	0.30508 0.67901 0.32969 0.11800
F 	F 	0.16236 0.63965 0.17502 -0.40700
H 	H 	0.11608 0.68454 0.18916 0.12300
C 	C 	0.19579 0.80190 0.25965 0.31500
C 	C 	0.16585 0.83199 0.24830 -0.05000
C 	C 	0.09423 0.79556 0.23906 -0.13500
C 	C 	0.05442 0.72715 0.24997 0.37700
C 	C 	0.08431 0.69685 0.26187 -0.14600
F 	F 	0.26411 0.83887 0.26309 -0.36900
H 	H 	0.19751 0.88455 0.24179 0.11800
F 	F 	0.98575 0.69054 0.24486 -0.40100
H 	H 	0.05229 0.64454 0.26681 0.12700
C 	C 	0.78814 0.28090 0.47539 -0.11100
C 	C 	0.82531 0.25921 0.51840 0.00900
C 	C 	0.84406 0.27062 0.56512 0.31100
C 	C 	0.82164 0.29914 0.56942 -0.07500
C 	C 	0.78014 0.31627 0.52731 -0.06600
C 	C 	0.76538 0.30909 0.47984 0.35900
C 	C 	0.83637 0.21697 0.51628 0.01900
F 	F 	0.88047 0.25051 0.60701 -0.41500
H 	H 	0.83357 0.30482 0.60613 0.12200
F 	F 	0.72594 0.32619 0.43863 -0.39700
H 	H 	0.77424 0.27321 0.43904 0.14300
C 	C 	0.78017 0.15336 0.51025 0.29900
C 	C 	0.79112 0.10746 0.52224 -0.04800
C 	C 	0.85802 0.12426 0.54132 -0.13100
C 	C 	0.91421 0.19002 0.54046 0.37500
C 	C 	0.90339 0.23618 0.52825 -0.12500
F 	F 	0.71496 0.13449 0.49697 -0.39400
H 	H 	0.74736 0.05724 0.52136 0.12800
F 	F 	0.97936 0.20792 0.55621 -0.40300
H 	H 	0.94713 0.28572 0.53134 0.14000
C 	C 	0.83934 0.57051 0.55670 -0.11300
C 	C 	0.78830 0.58015 0.53811 0.00500
C 	C 	0.72352 0.53811 0.51017 0.31200
C 	C 	0.70887 0.48501 0.50350 -0.07800
C 	C 	0.75735 0.47129 0.52677 -0.07000
C 	C 	0.82379 0.51594 0.55151 0.35400
C 	C 	0.80271 0.63401 0.54823 0.02800
F 	F 	0.67367 0.54678 0.49165 -0.40100
H 	H 	0.65789 0.45159 0.48342 0.12600
F 	F 	0.87182 0.50430 0.57337 -0.40300
H 	H 	0.89033 0.60409 0.57664 0.13800
C 	C 	0.82673 0.63982 0.59825 0.28900
C 	C 	0.85194 0.69677 0.60693 -0.04600
C 	C 	0.85334 0.74808 0.56582 -0.14600
C 	C 	0.81907 0.73749 0.51670 0.38200
C 	C 	0.79593 0.68171 0.50769 -0.13900
F 	F 	0.82859 0.59174 0.63821 -0.39600
H 	H 	0.87619 0.70346 0.64525 0.10200
F 	F 	0.81459 0.78441 0.47699 -0.43600
H 	H 	0.77556 0.67696 0.46904 0.14600
C 	C 	0.37588 0.07045 0.65884 -0.13700
C 	C 	0.39995 0.12890 0.62118 0.02800
C 	C 	0.36097 0.15373 0.59420 0.29200
C 	C 	0.29684 0.11857 0.60336 -0.04900
C 	C 	0.27118 0.05834 0.63928 -0.13800
C 	C 	0.31190 0.03530 0.66797 0.39400
C 	C 	0.46528 0.16334 0.60939 0.00800
F 	F 	0.38461 0.21115 0.55843 -0.40100
H 	H 	0.26582 0.13667 0.58096 0.10100
F 	F 	0.28837 0.97769 0.70349 -0.40000
H 	H 	0.40613 0.05151 0.68028 0.14500
C 	C 	0.52792 0.19627 0.64349 0.31500
C 	C 	0.58988 0.23300 0.63043 -0.07700
C 	C 	0.58974 0.23763 0.58307 -0.07500
C 	C 	0.52715 0.20084 0.55059 0.35700
C 	C 	0.46510 0.16389 0.56372 -0.11600
F 	F 	0.52870 0.19482 0.68833 -0.39600
H 	H 	0.63801 0.26090 0.65587 0.12100
F 	F 	0.52633 0.20426 0.50492 -0.40000
H 	H 	0.41687 0.13722 0.53778 0.13100
C 	C 	0.80485 0.28017 0.99309 -0.11100
C 	C 	0.85583 0.27510 0.03348 0.00900
C 	C 	0.88285 0.29959 0.07536 0.31100
C 	C 	0.85559 0.32459 0.07828 -0.07700
C 	C 	0.80071 0.32464 0.03979 -0.07300
C 	C 	0.77723 0.30466 0.99623 0.35900
C 	C 	0.87545 0.23791 0.03458 0.02400
F 	F 	0.93279 0.29578 0.11448 -0.40200
H 	H 	0.87437 0.34025 0.11188 0.11800
F 	F 	0.72560 0.30635 0.95794 -0.39400
H 	H 	0.78466 0.26266 0.96019 0.14300
C 	C 	0.82834 0.16984 0.04097 0.29400
C 	C 	0.85085 0.13298 0.05294 -0.04900
C 	C 	0.92066 0.16358 0.05971 -0.13800
C 	C 	0.96586 0.23213 0.04737 0.39100
C 	C 	0.94339 0.26913 0.03513 -0.12800
F 	F 	0.76194 0.13901 0.03916 -0.40200
H 	H 	0.81521 0.08019 0.06137 0.10500
F 	F 	0.03259 0.26267 0.05042 -0.40800
H 	H 	0.97959 0.32178 0.02859 0.15400
C 	C 	0.77515 0.50142 0.12594 -0.12800
C 	C 	0.80790 0.56199 0.09170 0.01000
C 	C 	0.83481 0.56988 0.05767 0.32200
C 	C 	0.82194 0.51580 0.05412 -0.07800
C 	C 	0.78402 0.45400 0.08555 -0.07300
C 	C 	0.76472 0.44809 0.12373 0.35600
C 	C 	0.81265 0.61665 0.09072 0.02100
F 	F 	0.87207 0.62953 0.02738 -0.40100
H 	H 	0.83866 0.52142 0.02541 0.12300
F 	F 	0.73285 0.38973 0.15715 -0.41000
H 	H 	0.75616 0.49519 0.15342 0.13200
C 	C 	0.78939 0.64953 0.04505 0.30800
C 	C 	0.80705 0.70898 0.04207 -0.04800
C 	C 	0.84743 0.73548 0.08470 -0.14200
C 	C 	0.85760 0.69588 0.13225 0.38500
C 	C 	0.84298 0.63789 0.13507 -0.14400
F 	F 	0.75270 0.62556 0.00309 -0.38800
H 	H 	0.79531 0.73746 0.00555 0.10400
F 	F 	0.88736 0.71648 0.17509 -0.40100
H 	H 	0.85764 0.61101 0.17121 0.14400
C 	C 	0.35836 0.04148 0.12758 -0.13300
C 	C 	0.38933 0.10743 0.10187 0.02500
C 	C 	0.35726 0.13642 0.08836 0.29300
C 	C 	0.29427 0.09931 0.10013 -0.05200
C 	C 	0.26306 0.03314 0.12567 -0.13600
C 	C 	0.29594 0.00457 0.13989 0.38500
C 	C 	0.45715 0.14691 0.09175 0.01000
F 	F 	0.38741 0.20060 0.06420 -0.39800
H 	H 	0.26915 0.12167 0.08858 0.10500
F 	F 	0.26761 0.94117 0.16594 -0.41300
H 	H 	0.38311 0.01898 0.13846 0.14900
C 	C 	0.51524 0.16007 0.13220 0.31600
C 	C 	0.58030 0.20198 0.12244 -0.07300
C 	C 	0.58802 0.23177 0.07229 -0.07000
C 	C 	0.52962 0.21553 0.03187 0.35900
C 	C 	0.46431 0.17306 0.04161 -0.11300
F 	F 	0.50889 0.13452 0.18090 -0.39400
H 	H 	0.62520 0.21418 0.15382 0.12800
F 	F 	0.53648 0.24357 0.98318 -0.39400
H 	H 	0.41950 0.16198 0.01022 0.13500
