data_crystal

_cell_length_a 40.66301
_cell_length_b 40.28931
_cell_length_c 22.17244
_cell_angle_alpha 89.82222
_cell_angle_beta  89.99992
_cell_angle_gamma 89.99972

_symmetry_space_group_name_	'P 1'
_symmetry_space_group_name_H-M	'P 1'

loop_
_symmetry_equiv_pos_as_xyz
  x,y,z

loop_
_atom_site_label
_atom_site_type_symbol
_atom_site_fract_x
_atom_site_fract_y
_atom_site_fract_z
_atom_site_charge
C 	C 	0.48283 0.58179 0.01216 0.08900
N 	N 	0.46417 0.55904 0.04071 -0.17400
C 	C 	0.43430 0.56028 0.01440 0.09100
C 	C 	0.40863 0.53463 0.02288 -0.07200
C 	C 	0.41791 0.50000 0.03719 0.08600
C 	C 	0.37361 0.54390 0.01684 0.03700
C 	C 	0.35983 0.56748 0.05577 -0.05700
C 	C 	0.32670 0.57620 0.05027 -0.02200
C 	C 	0.30711 0.56145 0.00568 -0.02100
C 	C 	0.35412 0.52938 0.97186 -0.05100
N 	N 	0.44403 0.48500 0.01181 -0.12900
C 	C 	0.39728 0.47705 0.06439 -0.06000
C 	C 	0.44043 0.45245 0.02423 0.08200
C 	C 	0.46142 0.42651 0.99694 -0.06700
C 	C 	0.44787 0.39314 0.98558 0.04400
C 	C 	0.41575 0.35584 0.92332 -0.04200
C 	C 	0.45635 0.36657 0.02344 -0.05700
C 	C 	0.44475 0.33467 0.01106 -0.04800
C 	C 	0.42483 0.32912 0.96041 0.03200
N 	N 	0.51280 0.46000 0.00065 -0.18000
C 	C 	0.54378 0.45617 0.98076 0.11400
C 	C 	0.54637 0.42838 0.94446 -0.06500
C 	C 	0.51522 0.41460 0.94220 -0.06100
C 	C 	0.57174 0.47598 0.00366 -0.07900
C 	C 	0.60489 0.46109 0.00856 0.03200
C 	C 	0.66297 0.46200 0.98355 -0.03400
C 	C 	0.66834 0.43469 0.02171 0.01600
C 	C 	0.64185 0.42049 0.05302 -0.04100
C 	C 	0.61021 0.43365 0.04647 -0.05200
N 	N 	0.54038 0.52878 0.99935 -0.12000
C 	C 	0.56462 0.55590 0.07584 -0.05900
C 	C 	0.53883 0.55557 0.03537 0.08100
C 	C 	0.51882 0.58494 0.02034 -0.06800
C 	C 	0.53498 0.61731 0.00961 0.03300
C 	C 	0.56021 0.62010 0.96667 -0.04400
C 	C 	0.57317 0.65126 0.95217 -0.02900
C 	C 	0.56096 0.67981 0.98042 -0.00300
C 	C 	0.53661 0.67688 0.02491 -0.03500
C 	C 	0.52371 0.64575 0.03954 -0.05100
C 	C 	0.46497 0.59771 0.96750 -0.05300
C 	C 	0.43384 0.58388 0.96887 -0.05400
C 	C 	0.32097 0.53809 0.96634 -0.01500
C 	C 	0.41178 0.44651 0.05610 -0.05800
C 	C 	0.49530 0.43478 0.97723 0.10500
C 	C 	0.58230 0.52734 0.06574 -0.06100
C 	C 	0.56687 0.51145 0.01830 0.08300
C 	C 	0.63136 0.47507 0.97685 -0.04300
H 	H 	0.47291 0.53993 0.06834 0.09500
H 	H 	0.50652 0.47277 0.03996 0.09700
H 	H 	0.59201 0.65332 0.91781 0.04300
H 	H 	0.52718 0.69882 0.04717 0.04200
H 	H 	0.56910 0.59828 0.94334 0.05100
H 	H 	0.50450 0.64380 0.07322 0.04700
H 	H 	0.31623 0.59435 0.08069 0.04100
H 	H 	0.36463 0.51131 0.94133 0.05100
H 	H 	0.30601 0.52655 0.93183 0.04300
H 	H 	0.37474 0.57888 0.09050 0.04900
H 	H 	0.45171 0.31416 0.04009 0.04900
H 	H 	0.47219 0.37059 0.06202 0.04700
C 	C 	0.42723 0.38778 0.93590 -0.04900
H 	H 	0.40026 0.35177 0.88429 0.04800
H 	H 	0.68333 0.47318 0.95939 0.04700
H 	H 	0.62746 0.49619 0.94735 0.04900
H 	H 	0.58993 0.42277 0.07129 0.04500
H 	H 	0.64581 0.39946 0.08269 0.04500
H 	H 	0.47558 0.61026 0.92888 0.05200
H 	H 	0.41684 0.58395 0.93130 0.05200
H 	H 	0.37145 0.48088 0.07393 0.05100
H 	H 	0.39896 0.42299 0.05825 0.05000
H 	H 	0.56894 0.41519 0.93482 0.05400
H 	H 	0.51006 0.38901 0.93083 0.05100
H 	H 	0.56614 0.57121 0.11577 0.04900
H 	H 	0.59807 0.51541 0.09865 0.05000
H 	H 	0.42048 0.40825 0.90663 0.05000
Co	Co	0.36242 0.13440 0.89725 1.18600
Co	Co	0.37351 0.05668 0.89057 1.10300
O 	O 	0.35616 0.18373 0.91302 -0.36300
O 	O 	0.40697 0.17011 0.91317 -0.27000
O 	O 	0.31828 0.11544 0.88389 -0.40500
O 	O 	0.36243 0.07601 0.81086 -0.45900
C 	C 	0.30861 0.08801 0.91115 0.29800
C 	C 	0.38596 0.19373 0.91989 0.28100
O 	O 	0.33021 0.06697 0.93348 -0.42600
O 	O 	0.37968 0.12957 0.81636 -0.39700
C 	C 	0.37939 0.10085 0.78859 0.32700
O 	O 	0.36926 0.11840 0.97826 -0.42300
O 	O 	0.40481 0.07918 0.94529 -0.45500
C 	C 	0.39370 0.09808 0.98879 0.35400
C 	C 	0.50885 0.03482 0.45217 0.02100
C 	C 	0.53285 0.00901 0.45316 0.01800
C 	C 	0.49786 0.04775 0.39673 -0.05200
C 	C 	0.50938 0.03424 0.34234 0.02200
C 	C 	0.54488 0.99597 0.39873 -0.04900
C 	C 	0.53299 0.00806 0.34341 0.01600
H 	H 	0.56315 0.97643 0.39943 0.06000
H 	H 	0.48114 0.06868 0.39594 0.06000
C 	C 	0.54234 0.99351 0.28816 -0.00600
C 	C 	0.53158 0.00614 0.23305 0.01900
C 	C 	0.55076 0.99564 0.18338 -0.04300
C 	C 	0.57680 0.97479 0.20020 0.02000
S 	S 	0.57542 0.97001 0.27536 0.03300
H 	H 	0.54521 0.00190 0.13696 0.05600
C 	C 	0.49914 0.04704 0.28578 -0.01900
C 	C 	0.50956 0.03257 0.23151 0.01800
C 	C 	0.48796 0.03865 0.18258 -0.05400
C 	C 	0.46025 0.05697 0.19913 0.03100
S 	S 	0.46341 0.06633 0.27231 0.03700
H 	H 	0.49171 0.02898 0.13759 0.05800
C 	C 	0.50579 0.03248 0.56264 0.01800
C 	C 	0.49704 0.04736 0.50765 -0.01800
S 	S 	0.46071 0.06605 0.51759 0.03800
C 	C 	0.45506 0.05599 0.59001 0.03100
C 	C 	0.48238 0.03771 0.60919 -0.05600
C 	C 	0.54429 0.99728 0.50954 -0.01700
C 	C 	0.52960 0.00743 0.56355 0.01600
C 	C 	0.53403 0.98450 0.61169 -0.05500
C 	C 	0.55156 0.95616 0.59462 0.03200
S 	S 	0.56176 0.96032 0.52200 0.03500
H 	H 	0.52633 0.98914 0.65762 0.05400
H 	H 	0.48570 0.02952 0.65532 0.05400
Co	Co	0.64115 0.86836 0.89818 1.18600
Co	Co	0.56329 0.87728 0.90263 1.10300
O 	O 	0.69101 0.86420 0.89598 -0.36100
O 	O 	0.67574 0.91449 0.90618 -0.26800
O 	O 	0.62321 0.82303 0.89108 -0.41000
O 	O 	0.58748 0.91049 0.95144 -0.46000
C 	C 	0.59720 0.81348 0.92200 0.32600
C 	C 	0.70036 0.89462 0.90075 0.28400
O 	O 	0.57783 0.83546 0.94760 -0.43300
O 	O 	0.62919 0.87690 0.98106 -0.41500
C 	C 	0.60826 0.90068 0.99305 0.35700
O 	O 	0.63208 0.88340 0.81698 -0.39600
O 	O 	0.57894 0.86593 0.82091 -0.46300
C 	C 	0.60218 0.88326 0.79460 0.32800
Co	Co	0.11055 0.61579 0.01804 1.18100
Co	Co	0.03488 0.60207 0.03315 1.10000
O 	O 	0.15966 0.62466 0.01236 -0.38000
O 	O 	0.14740 0.57690 0.97823 -0.29800
O 	O 	0.09111 0.65658 0.05174 -0.41100
O 	O 	0.05495 0.57833 0.96398 -0.45300
C 	C 	0.06364 0.66913 0.03018 0.32800
C 	C 	0.17061 0.59801 0.98770 0.31900
O 	O 	0.04172 0.64984 0.00435 -0.43600
O 	O 	0.09187 0.61793 0.93818 -0.42400
C 	C 	0.07082 0.59501 0.92227 0.34500
O 	O 	0.10869 0.58815 0.08928 -0.43200
O 	O 	0.05669 0.60494 0.11280 -0.43800
C 	C 	0.08327 0.58785 0.12586 0.33300
C 	C 	0.00063 0.50690 0.56136 0.01900
C 	C 	0.97465 0.48329 0.56189 0.02000
C 	C 	0.02578 0.50445 0.51814 -0.05100
C 	C 	0.02420 0.48001 0.47307 0.01600
C 	C 	0.97401 0.45778 0.51887 -0.05100
C 	C 	0.99804 0.45655 0.47335 0.01700
H 	H 	0.95442 0.43957 0.51979 0.05800
H 	H 	0.04591 0.52204 0.51852 0.05900
C 	C 	0.99625 0.43300 0.42636 -0.01100
C 	C 	0.01721 0.43487 0.37620 0.01700
C 	C 	0.00386 0.41958 0.32368 -0.04900
C 	C 	0.97250 0.40611 0.33296 0.03600
S 	S 	0.96185 0.41410 0.40413 0.01500
H 	H 	0.01467 0.42176 0.27930 0.06400
C 	C 	0.04745 0.47901 0.42569 -0.01000
C 	C 	0.04274 0.45836 0.37550 0.01600
C 	C 	0.05819 0.47053 0.32207 -0.04700
C 	C 	0.07511 0.50043 0.33089 0.03400
S 	S 	0.06972 0.51144 0.40276 0.01300
H 	H 	0.05368 0.46050 0.27767 0.06700
C 	C 	0.97463 0.53617 0.64585 0.01900
C 	C 	0.99945 0.53369 0.60220 -0.01300
S 	S 	0.03210 0.55447 0.62755 0.02500
C 	C 	0.01568 0.56905 0.69119 0.03500
C 	C 	0.98376 0.55625 0.69590 -0.04800
C 	C 	0.94875 0.48725 0.60365 -0.01300
C 	C 	0.94913 0.51267 0.64677 0.01800
C 	C 	0.92930 0.50550 0.69816 -0.04300
C 	C 	0.91399 0.47442 0.69501 0.02100
S 	S 	0.92578 0.45638 0.63099 0.03000
H 	H 	0.92940 0.52021 0.73887 0.05500
H 	H 	0.96947 0.55805 0.73690 0.05800
Co	Co	0.86801 0.37331 0.02015 1.18100
Co	Co	0.86280 0.45079 0.03537 1.10600
O 	O 	0.87095 0.32349 0.00713 -0.37800
O 	O 	0.91742 0.34397 0.03186 -0.31900
O 	O 	0.82122 0.38469 0.00792 -0.40300
O 	O 	0.89773 0.43023 0.08564 -0.45900
C 	C 	0.80595 0.40617 0.04274 0.29600
C 	C 	0.90151 0.31754 0.01734 0.32200
O 	O 	0.82294 0.42816 0.07339 -0.41500
O 	O 	0.87134 0.38196 0.10539 -0.43000
C 	C 	0.89041 0.40617 0.12331 0.34700
O 	O 	0.88541 0.39025 0.94495 -0.41900
O 	O 	0.85489 0.43772 0.95057 -0.43900
C 	C 	0.87512 0.41827 0.92100 0.33200
C 	C 	0.99393 0.92801 0.07855 0.10300
N 	N 	0.97957 0.95424 0.05163 -0.17200
C 	C 	0.94763 0.95350 0.06772 0.09900
C 	C 	0.92193 0.97306 0.03619 -0.07000
C 	C 	0.92849 0.00791 0.01849 0.08800
C 	C 	0.89099 0.95699 0.01756 0.02500
C 	C 	0.88790 0.94413 0.95916 -0.03500
C 	C 	0.85762 0.93192 0.93932 -0.04900
C 	C 	0.83026 0.93255 0.97779 0.03700
C 	C 	0.86393 0.95655 0.05673 -0.04400
N 	N 	0.95787 0.02249 0.02689 -0.13000
C 	C 	0.90442 0.03128 0.00630 -0.05900
C 	C 	0.95291 0.05517 0.01826 0.08900
C 	C 	0.97755 0.08059 0.03584 -0.07300
C 	C 	0.96849 0.11615 0.03488 0.03900
C 	C 	0.95137 0.16587 0.08782 -0.01700
C 	C 	0.96575 0.13309 0.97977 -0.05300
C 	C 	0.95543 0.16620 0.97857 -0.01100
C 	C 	0.94818 0.18278 0.03262 -0.02800
N 	N 	0.02553 0.04179 0.04034 -0.17100
C 	C 	0.05652 0.04331 0.06141 0.09900
C 	C 	0.06180 0.07297 0.09138 -0.05900
C 	C 	0.03243 0.09021 0.08886 -0.06200
C 	C 	0.08301 0.02151 0.03887 -0.06700
C 	C 	0.11464 0.03591 0.01918 0.02400
C 	C 	0.17389 0.03968 0.02939 -0.05300
C 	C 	0.17554 0.05808 0.97567 0.03500
C 	C 	0.14652 0.06655 0.94511 -0.04800
C 	C 	0.11612 0.05553 0.96687 -0.03600
N 	N 	0.05413 0.96965 0.06917 -0.12500
C 	C 	0.07744 0.93379 0.00411 -0.08600
C 	C 	0.05393 0.93820 0.04844 0.09700
C 	C 	0.02634 0.91497 0.05942 -0.07900
C 	C 	0.03168 0.87875 0.05385 0.04800
C 	C 	0.05667 0.86317 0.08717 -0.06000
C 	C 	0.06168 0.82897 0.08208 -0.02000
C 	C 	0.04165 0.81005 0.04383 -0.01800
C 	C 	0.01670 0.82559 0.01041 -0.02700
C 	C 	0.01182 0.85985 0.01519 -0.06800
C 	C 	0.97107 0.91020 0.11189 -0.06200
C 	C 	0.94139 0.92652 0.10487 -0.06100
C 	C 	0.83368 0.94423 0.03700 -0.05400
C 	C 	0.92009 0.06166 0.00620 -0.06100
C 	C 	0.01074 0.07024 0.05724 0.10000
C 	C 	0.09323 0.96385 0.99794 -0.03400
C 	C 	0.07851 0.98504 0.03880 0.07500
C 	C 	0.14356 0.02850 0.05091 -0.04200
H 	H 	0.98844 0.96540 0.01224 0.09500
H 	H 	0.01870 0.02782 0.00274 0.09500
H 	H 	0.08095 0.81713 0.10814 0.04200
H 	H 	0.00116 0.81116 0.98071 0.04600
H 	H 	0.07207 0.87753 0.11725 0.05200
H 	H 	0.99260 0.87169 0.98900 0.05500
H 	H 	0.85519 0.92280 0.89363 0.04900
H 	H 	0.86618 0.96642 0.10195 0.04600
H 	H 	0.81267 0.94464 0.06705 0.05200
H 	H 	0.90876 0.94430 0.92875 0.04500
H 	H 	0.95278 0.17886 0.93567 0.04000
H 	H 	0.97117 0.12046 0.93787 0.05100
C 	C 	0.96106 0.13259 0.08885 -0.06000
H 	H 	0.94618 0.17847 0.12985 0.04100
H 	H 	0.19619 0.03330 0.05353 0.05000
H 	H 	0.14257 0.01363 0.09166 0.04800
H 	H 	0.09385 0.06151 0.94232 0.04500
H 	H 	0.14758 0.08095 0.90381 0.04900
H 	H 	0.97353 0.88437 0.12471 0.05200
H 	H 	0.91754 0.91513 0.11127 0.05000
H 	H 	0.87839 0.02780 0.01438 0.04900
H 	H 	0.90790 0.08513 0.01418 0.05100
H 	H 	0.08563 0.08432 0.09828 0.05200
H 	H 	0.03025 0.11683 0.09376 0.05200
H 	H 	0.07642 0.91496 0.96942 0.06100
H 	H 	0.10635 0.97171 0.95788 0.04400
H 	H 	0.96282 0.11957 0.13155 0.05200
C 	C 	0.93677 0.21767 0.03137 0.07600
C 	C 	0.95532 0.24202 0.00145 -0.11300
C 	C 	0.94420 0.27480 0.99897 0.07800
C 	C 	0.91467 0.28384 0.02719 -0.15200
C 	C 	0.89709 0.25988 0.06136 0.16600
C 	C 	0.90753 0.22662 0.06078 -0.13200
H 	H 	0.95823 0.29310 0.97394 0.03200
H 	H 	0.89338 0.20791 0.08460 0.07000
H 	H 	0.97824 0.23547 0.97959 0.07200
N 	N 	0.87145 0.26888 0.09716 -0.20700
H 	H 	0.86678 0.29375 0.10703 0.10600
H 	H 	0.85743 0.25082 0.11928 0.09600
C 	C 	0.90446 0.45540 0.74893 0.00200
C 	C 	0.92833 0.44424 0.79043 0.13200
C 	C 	0.91847 0.43019 0.84529 -0.02800
C 	C 	0.88496 0.42716 0.85922 -0.12000
C 	C 	0.86119 0.43594 0.81575 0.20400
C 	C 	0.87104 0.45018 0.76103 -0.10400
H 	H 	0.93686 0.42275 0.87804 0.06900
H 	H 	0.85266 0.45781 0.72841 0.08600
Cl	Cl	0.97065 0.44805 0.77459 -0.31500
Cl	Cl	0.81906 0.42847 0.82864 -0.32600
C 	C 	0.90739 0.40401 0.18170 -0.12200
C 	C 	0.90667 0.43092 0.22203 0.20600
C 	C 	0.92714 0.43089 0.27267 -0.10300
C 	C 	0.94815 0.40396 0.28402 -0.00000
C 	C 	0.94757 0.37626 0.24551 0.13500
C 	C 	0.92711 0.37632 0.19472 -0.02000
H 	H 	0.92730 0.45218 0.30245 0.08400
H 	H 	0.92742 0.35532 0.16426 0.07500
Cl	Cl	0.87989 0.46469 0.21000 -0.36900
Cl	Cl	0.97279 0.34159 0.25982 -0.31100
C 	C 	0.04658 0.77391 0.03941 0.06400
C 	C 	0.07374 0.76130 0.00814 -0.09500
C 	C 	0.07915 0.72711 0.00563 0.04600
C 	C 	0.05757 0.70506 0.03463 -0.13800
C 	C 	0.03035 0.71771 0.06740 0.15500
C 	C 	0.02477 0.75216 0.06839 -0.12500
H 	H 	0.10011 0.71768 0.98083 0.03600
H 	H 	0.00396 0.76205 0.09308 0.06700
H 	H 	0.09070 0.77803 0.98577 0.06600
N 	N 	0.01028 0.69720 0.09949 -0.20600
H 	H 	0.01544 0.67196 0.10438 0.08800
H 	H 	0.98977 0.70670 0.12201 0.09100
C 	C 	0.06311 0.58959 0.85833 -0.12200
C 	C 	0.06476 0.55751 0.83347 0.20500
C 	C 	0.05090 0.55132 0.77688 -0.10000
C 	C 	0.03558 0.57700 0.74455 0.00100
C 	C 	0.03614 0.60953 0.76739 0.13400
C 	C 	0.05003 0.61573 0.82400 -0.02600
H 	H 	0.05102 0.52632 0.75896 0.09500
H 	H 	0.04923 0.64060 0.84249 0.07100
Cl	Cl	0.08422 0.52489 0.87272 -0.30700
Cl	Cl	0.01850 0.64253 0.72639 -0.31600
C 	C 	0.08055 0.52470 0.28171 -0.00100
C 	C 	0.10046 0.51645 0.23198 0.13400
C 	C 	0.10202 0.53774 0.18211 -0.02800
C 	C 	0.08465 0.56789 0.18192 -0.12100
C 	C 	0.06730 0.57758 0.23415 0.20000
C 	C 	0.06444 0.55555 0.28276 -0.10100
H 	H 	0.11630 0.53053 0.14301 0.07300
H 	H 	0.04953 0.56245 0.32123 0.08500
Cl	Cl	0.12409 0.47979 0.23200 -0.31500
Cl	Cl	0.05125 0.61801 0.24154 -0.32600
C 	C 	0.73412 0.90426 0.91757 -0.03400
C 	C 	0.75715 0.88013 0.93499 -0.01100
C 	C 	0.78859 0.88956 0.95367 -0.02300
C 	C 	0.79753 0.92318 0.95478 -0.03600
C 	C 	0.77477 0.94763 0.93534 0.09700
C 	C 	0.74310 0.93789 0.91735 -0.04700
H 	H 	0.80595 0.87072 0.96801 0.04300
H 	H 	0.72551 0.95652 0.90293 0.08000
H 	H 	0.75057 0.85408 0.93502 0.05400
N 	N 	0.78320 0.98031 0.93340 -0.19600
H 	H 	0.80693 0.98829 0.94393 0.09500
H 	H 	0.76602 0.99818 0.92006 0.10000
C 	C 	0.57032 0.93570 0.63768 -0.00200
C 	C 	0.56343 0.90165 0.64398 0.13400
C 	C 	0.57608 0.88396 0.69320 -0.02700
C 	C 	0.59536 0.90006 0.73676 -0.12100
C 	C 	0.60421 0.93361 0.72795 0.19400
C 	C 	0.59202 0.95105 0.67810 -0.10000
H 	H 	0.56983 0.85798 0.69887 0.07200
H 	H 	0.59806 0.97709 0.67252 0.08600
Cl	Cl	0.53755 0.88126 0.59229 -0.31500
Cl	Cl	0.62831 0.95494 0.78137 -0.32400
C 	C 	0.60522 0.91350 0.05467 -0.13200
C 	C 	0.62705 0.93786 0.07616 0.20900
C 	C 	0.61928 0.95566 0.12840 -0.10500
C 	C 	0.58985 0.94935 0.15929 0.00600
C 	C 	0.56994 0.92246 0.14143 0.12900
C 	C 	0.57764 0.90479 0.08914 -0.02000
H 	H 	0.63513 0.97575 0.14283 0.08700
H 	H 	0.56132 0.88530 0.07374 0.05000
Cl	Cl	0.66335 0.94749 0.03653 -0.32300
Cl	Cl	0.53424 0.91189 0.18225 -0.32000
C 	C 	0.27335 0.08149 0.91950 -0.05800
C 	C 	0.25259 0.10642 0.94158 -0.00100
C 	C 	0.22006 0.09903 0.95685 -0.03000
C 	C 	0.20784 0.06672 0.94965 -0.03200
C 	C 	0.22799 0.04206 0.92306 0.08500
C 	C 	0.26086 0.04957 0.90925 -0.04400
H 	H 	0.20466 0.11815 0.97634 0.04700
H 	H 	0.27673 0.03054 0.89065 0.04100
H 	H 	0.26201 0.13122 0.94918 0.04700
N 	N 	0.21589 0.01138 0.91039 -0.19600
H 	H 	0.19101 0.00578 0.91608 0.09200
H 	H 	0.23122 0.99303 0.89261 0.08800
C 	C 	0.39677 0.09685 0.73064 -0.12000
C 	C 	0.43011 0.10613 0.72481 0.19300
C 	C 	0.44826 0.09552 0.67485 -0.10000
C 	C 	0.43384 0.07483 0.63146 -0.00100
C 	C 	0.39994 0.06805 0.63450 0.13400
C 	C 	0.38153 0.07922 0.68378 -0.02700
H 	H 	0.47416 0.10165 0.67170 0.08600
H 	H 	0.35570 0.07284 0.68703 0.07300
Cl	Cl	0.45031 0.12859 0.78200 -0.31800
Cl	Cl	0.38064 0.04380 0.57882 -0.31200
C 	C 	0.40756 0.09513 0.04965 -0.13000
C 	C 	0.43936 0.10705 0.06201 0.20500
C 	C 	0.45532 0.09748 0.11517 -0.10300
C 	C 	0.44000 0.07553 0.15563 0.00200
C 	C 	0.40697 0.06647 0.14619 0.13300
C 	C 	0.39086 0.07637 0.09331 -0.02300
H 	H 	0.48040 0.10545 0.12323 0.08600
H 	H 	0.36600 0.06792 0.08467 0.06300
Cl	Cl	0.45990 0.13302 0.01026 -0.31500
Cl	Cl	0.38626 0.04081 0.19821 -0.31200
C 	C 	0.39532 0.22888 0.92601 -0.03700
C 	C 	0.37294 0.25187 0.94970 -0.01100
C 	C 	0.38252 0.28471 0.95931 -0.02400
C 	C 	0.41451 0.29509 0.94496 -0.03500
C 	C 	0.43684 0.27235 0.91855 0.09500
C 	C 	0.42713 0.23923 0.91014 -0.05000
H 	H 	0.36522 0.30204 0.97901 0.04600
H 	H 	0.44429 0.22161 0.89082 0.08000
H 	H 	0.34831 0.24412 0.96200 0.05400
N 	N 	0.46734 0.28220 0.90062 -0.19700
H 	H 	0.47462 0.30701 0.90281 0.09400
H 	H 	0.48389 0.26505 0.88260 0.10000
C 	C 	0.27195 0.57004 0.00095 0.05300
C 	C 	0.26018 0.58692 0.95003 -0.07500
C 	C 	0.22705 0.59580 0.94610 0.04400
C 	C 	0.20524 0.58788 0.99298 -0.12300
C 	C 	0.21696 0.57063 0.04462 0.15000
C 	C 	0.25035 0.56177 0.04791 -0.11900
H 	H 	0.21829 0.60897 0.90656 0.03300
H 	H 	0.25952 0.54858 0.08716 0.06900
H 	H 	0.27679 0.59341 0.91364 0.05700
N 	N 	0.19650 0.56271 0.09106 -0.20700
H 	H 	0.17173 0.56937 0.09067 0.11400
H 	H 	0.20541 0.54982 0.12864 0.10300
C 	C 	0.76972 0.40864 0.04085 -0.06100
C 	C 	0.75266 0.42360 0.08857 -0.01000
C 	C 	0.71907 0.43021 0.08340 -0.03100
C 	C 	0.70201 0.42185 0.03061 -0.03900
C 	C 	0.71849 0.40443 0.98413 0.09500
C 	C 	0.75242 0.39834 0.98936 -0.04000
H 	H 	0.70650 0.44302 0.11961 0.04200
H 	H 	0.76538 0.38625 0.95278 0.07400
H 	H 	0.76559 0.43090 0.12913 0.05000
N 	N 	0.70193 0.39340 0.93480 -0.19700
H 	H 	0.67640 0.39550 0.93156 0.09500
H 	H 	0.71447 0.38152 0.89983 0.10000
C 	C 	0.57159 0.71289 0.95997 0.05400
C 	C 	0.60247 0.72523 0.97668 -0.07600
C 	C 	0.61152 0.75760 0.96104 0.04800
C 	C 	0.58978 0.77794 0.92853 -0.13800
C 	C 	0.55941 0.76480 0.90817 0.14800
C 	C 	0.55035 0.73246 0.92508 -0.12000
H 	H 	0.63496 0.76730 0.97614 0.03200
H 	H 	0.52680 0.72251 0.91098 0.06600
H 	H 	0.61912 0.71004 0.00309 0.05000
N 	N 	0.53928 0.78280 0.87156 -0.20700
H 	H 	0.54662 0.80564 0.85375 0.07500
H 	H 	0.51643 0.77336 0.85852 0.08600
