data_crystal

_cell_length_a 21.26707
_cell_length_b 21.13821
_cell_length_c 37.71452
_cell_angle_alpha 88.76489
_cell_angle_beta  88.76508
_cell_angle_gamma 124.47436

_symmetry_space_group_name_	'P 1'
_symmetry_space_group_name_H-M	'P 1'

loop_
_symmetry_equiv_pos_as_xyz
  x,y,z

loop_
_atom_site_label
_atom_site_type_symbol
_atom_site_fract_x
_atom_site_fract_y
_atom_site_fract_z
_atom_site_charge
C 	C 	0.09919 0.99893 0.00218 0.15000
C 	C 	0.06999 0.98046 0.03736 -0.01400
C 	C 	0.04946 0.97901 0.97426 -0.01100
H 	H 	0.10806 0.99565 0.05906 0.09200
H 	H 	0.07155 0.99280 0.94701 0.09400
C 	C 	0.48758 0.40372 0.50891 0.13500
C 	C 	0.46110 0.36295 0.54177 -0.03700
C 	C 	0.38285 0.31105 0.54922 -0.03000
C 	C 	0.33026 0.29883 0.52389 0.07900
C 	C 	0.35695 0.33835 0.49054 -0.03400
C 	C 	0.43518 0.39110 0.48331 -0.03200
N 	N 	0.24964 0.25068 0.53341 -0.13300
C 	C 	0.14355 0.36582 0.50934 0.15000
C 	C 	0.13661 0.31112 0.48635 -0.03900
C 	C 	0.16919 0.27111 0.49457 -0.03100
C 	C 	0.20929 0.28574 0.52597 0.07900
C 	C 	0.21497 0.33964 0.54912 -0.02600
C 	C 	0.18241 0.37961 0.54083 -0.04000
C 	C 	0.13617 0.01264 0.51446 0.13400
C 	C 	0.11989 0.03662 0.54563 -0.05900
C 	C 	0.15663 0.11491 0.55136 -0.02000
C 	C 	0.21013 0.17009 0.52609 0.07600
C 	C 	0.22545 0.14589 0.49446 -0.03300
C 	C 	0.18868 0.06751 0.48879 -0.03700
H 	H 	0.50122 0.37143 0.56151 0.08900
H 	H 	0.36287 0.28094 0.57489 0.07200
H 	H 	0.31722 0.32858 0.47042 0.06600
H 	H 	0.45510 0.42182 0.45776 0.09900
H 	H 	0.16528 0.23071 0.47610 0.06700
H 	H 	0.24583 0.35138 0.57327 0.07300
H 	H 	0.18735 0.42128 0.55887 0.09400
H 	H 	0.14423 0.13291 0.57567 0.07000
H 	H 	0.26476 0.18737 0.47416 0.06600
H 	H 	0.20104 0.04942 0.46450 0.08900
C 	C 	0.09931 0.93000 0.50902 -0.12400
C 	C 	0.14045 0.89708 0.51371 0.25400
C 	C 	0.10548 0.81866 0.50874 0.28100
F 	F 	0.14647 0.78794 0.51249 -0.35400
F 	F 	0.21436 0.94116 0.52307 -0.36700
C 	C 	0.15107 0.48210 0.48723 0.26300
C 	C 	0.10716 0.40616 0.50121 -0.14800
C 	C 	0.11613 0.52005 0.47924 0.26600
F 	F 	0.15916 0.59366 0.46596 -0.35200
F 	F 	0.22751 0.51892 0.48125 -0.37200
C 	C 	0.23124 0.11820 0.99841 0.26000
C 	C 	0.18189 0.03859 0.99470 -0.16700
C 	C 	0.21217 0.99598 0.98696 0.29300
C 	C 	0.29133 0.03208 0.98467 0.25100
C 	C 	0.34081 0.11123 0.99006 -0.18500
C 	C 	0.31038 0.15440 0.99608 0.28300
F 	F 	0.35760 0.23121 0.00045 -0.37100
F 	F 	0.20243 0.16010 0.00526 -0.37700
F 	F 	0.31985 0.98952 0.97898 -0.34300
F 	F 	0.16483 0.91905 0.98300 -0.37600
H 	H 	0.10628 0.29990 0.46205 0.09400
O 	O 	0.45929 0.13179 0.96985 -0.35800
C 	C 	0.42322 0.14718 0.99333 0.39200
O 	O 	0.45362 0.17801 0.02397 -0.35500
C 	C 	0.57042 0.45621 0.50069 -0.12000
F 	F 	0.56177 0.37811 0.45343 -0.38200
F 	F 	0.58299 0.54252 0.54456 -0.37000
H 	H 	0.07928 0.99460 0.56554 0.11400
C 	C 	0.02832 0.36856 0.50738 0.29300
C 	C 	0.03703 0.48229 0.48518 -0.12200
C 	C 	0.60516 0.43769 0.47475 0.23900
F 	F 	0.52185 0.98223 0.03140 -0.34100
C 	C 	0.61598 0.52044 0.52127 0.24000
F 	F 	0.61582 0.44203 0.91778 -0.37400
O 	O 	0.56657 0.13655 0.03944 -0.30000
O 	O 	0.53505 0.29680 0.94370 -0.31000
O 	O 	0.56449 0.16884 0.89863 -0.32300
H 	H 	0.55745 0.14369 0.83126 0.06300
H 	H 	0.56586 0.31275 0.15041 0.07100
Co	Co	0.56431 0.23674 0.03541 1.19700
O 	O 	0.56404 0.28157 0.08424 -0.30400
Co	Co	0.56107 0.21232 0.94757 1.29100
C 	C 	0.02891 0.77245 0.49911 -0.14600
C 	C 	0.58947 0.13630 0.00720 0.31800
C 	C 	0.55795 0.32840 0.97420 0.41500
C 	C 	0.59214 0.02047 0.01494 0.23400
C 	C 	0.61517 0.46286 0.95152 0.30400
H 	H 	0.59087 0.19988 0.96641 -0.31700
F 	F 	0.60272 0.91726 0.03097 -0.38200
C 	C 	0.02277 0.88385 0.49951 0.28900
C 	C 	0.57909 0.40686 0.97945 -0.20500
H 	H 	0.60072 0.17848 0.76831 0.08300
O 	O 	0.59492 0.30467 0.98983 -0.43900
O 	O 	0.61173 0.19979 0.99007 -0.22000
H 	H 	0.62319 0.35431 0.20862 0.08700
C 	C 	0.62458 0.09426 0.99945 -0.15400
C 	C 	0.61338 0.19511 0.82447 0.03900
C 	C 	0.62595 0.33662 0.15286 0.04200
C 	C 	0.65469 0.54078 0.95869 0.23600
C 	C 	0.63320 0.98714 0.01458 0.30100
O 	O 	0.00762 0.55067 0.44414 -0.26900
C 	C 	0.57697 0.42950 0.01393 0.29300
F 	F 	0.53762 0.37582 0.04063 -0.39600
C 	C 	0.63284 0.22511 0.88876 0.30000
C 	C 	0.63658 0.31945 0.08818 0.30000
H 	H 	0.62127 0.65517 0.02165 0.10100
C 	C 	0.63792 0.21464 0.78877 -0.07600
C 	C 	0.61789 0.50748 0.02122 0.23500
F 	F 	0.62017 0.52868 0.05515 -0.38100
C 	C 	0.65833 0.35980 0.18594 -0.07500
C 	C 	0.66033 0.24278 0.85120 -0.06600
C 	C 	0.65918 0.56344 0.99378 -0.11200
O 	O 	0.66151 0.27673 0.91235 -0.27500
C 	C 	0.68463 0.47768 0.47211 0.29500
O 	O 	0.66935 0.30897 0.06198 -0.31700
C 	C 	0.67107 0.34452 0.12307 -0.06800
C 	C 	0.69556 0.55999 0.51890 0.30200
C 	C 	0.68214 0.68450 0.01642 -0.02900
F 	F 	0.69113 0.59446 0.93172 -0.37500
C 	C 	0.69558 0.13110 0.98059 0.26100
C 	C 	0.70667 0.02693 0.99842 -0.18700
H 	H 	0.70825 0.79034 0.03687 0.08000
C 	C 	0.70986 0.28108 0.77944 0.12000
C 	C 	0.71124 0.64510 0.00206 0.12300
H 	H 	0.71630 0.27827 0.67471 0.08500
O 	O 	0.00180 0.64869 0.51562 -0.33000
F 	F 	0.71723 0.45874 0.44702 -0.40000
H 	H 	0.71835 0.29879 0.30917 0.08700
C 	C 	0.99160 0.94218 0.04463 -0.05700
C 	C 	0.97094 0.94078 0.98151 -0.05700
H 	H 	0.96951 0.92811 0.07187 0.07600
H 	H 	0.93290 0.92420 0.95978 0.07200
C 	C 	0.94162 0.92190 0.01687 0.08700
N 	N 	0.86084 0.88253 0.02503 -0.13200
C 	C 	0.75480 0.99802 0.00328 0.19900
C 	C 	0.76247 0.95777 0.97642 -0.06100
C 	C 	0.80183 0.92373 0.98250 -0.01300
C 	C 	0.83311 0.92907 0.01579 0.05700
C 	C 	0.82929 0.97336 0.04171 0.01300
C 	C 	0.79012 0.00751 0.03556 -0.10300
C 	C 	0.73145 0.76158 0.02451 -0.03500
C 	C 	0.81055 0.80179 0.01657 0.08100
C 	C 	0.83984 0.76062 0.00369 -0.04500
C 	C 	0.79026 0.68312 0.99617 -0.02500
H 	H 	0.73608 0.95098 0.95126 0.10200
H 	H 	0.80464 0.89002 0.96213 0.06300
H 	H 	0.85386 0.97843 0.06722 0.06300
H 	H 	0.78536 0.03954 0.05624 0.09700
H 	H 	0.90057 0.78771 0.99996 0.07500
H 	H 	0.81335 0.65235 0.98604 0.08900
Co	Co	0.91028 0.55751 0.44479 1.19300
O 	O 	0.87639 0.56831 0.39463 -0.32900
Co	Co	0.91603 0.54439 0.53346 1.29000
O 	O 	0.83394 0.52046 0.48759 -0.41900
O 	O 	0.84280 0.45780 0.41370 -0.29300
C 	C 	0.99267 0.69048 0.49259 0.35400
O 	O 	0.83414 0.57344 0.53499 -0.31700
C 	C 	0.89117 0.46209 0.59047 0.29700
C 	C 	0.99995 0.52168 0.47601 0.28300
O 	O 	0.94954 0.53127 0.58340 -0.33000
O 	O 	0.84398 0.43858 0.56509 -0.28600
O 	O 	0.93454 0.49931 0.49044 -0.20800
O 	O 	0.96811 0.66635 0.46036 -0.35800
C 	C 	0.83864 0.49645 0.38803 0.31300
C 	C 	0.80787 0.55559 0.50321 0.40100
H 	H 	0.93037 0.51645 0.51452 -0.33000
C 	C 	0.75748 0.32808 0.80615 -0.07200
C 	C 	0.73304 0.30872 0.84184 0.04300
H 	H 	0.81273 0.38029 0.79924 0.08700
H 	H 	0.77023 0.34556 0.86215 0.07300
N 	N 	0.73146 0.30346 0.74310 -0.07500
N 	N 	0.79972 0.33849 0.73266 -0.07500
C 	C 	0.86807 0.42812 0.62699 -0.07000
C 	C 	0.91881 0.46326 0.65460 0.03900
C 	C 	0.89604 0.43282 0.68941 -0.07800
C 	C 	0.82250 0.36730 0.69704 0.11900
C 	C 	0.77251 0.33035 0.66930 -0.07400
C 	C 	0.79517 0.36073 0.63446 0.04000
H 	H 	0.97571 0.51437 0.64917 0.06100
H 	H 	0.93528 0.46074 0.71056 0.08300
H 	H 	0.75593 0.33207 0.61336 0.06700
C 	C 	0.73617 0.39100 0.18964 0.11900
C 	C 	0.74926 0.37712 0.12670 0.03900
C 	C 	0.78160 0.40049 0.15984 -0.07800
H 	H 	0.78503 0.38464 0.10388 0.06200
H 	H 	0.84196 0.42586 0.16239 0.08400
N 	N 	0.77002 0.41723 0.22282 -0.07600
N 	N 	0.73475 0.38094 0.25096 -0.07500
C 	C 	0.81527 0.46713 0.35214 -0.06900
C 	C 	0.83038 0.51787 0.32338 0.04100
C 	C 	0.80542 0.48976 0.28969 -0.07600
C 	C 	0.76539 0.41060 0.28434 0.12000
C 	C 	0.75019 0.35998 0.31299 -0.07700
C 	C 	0.77523 0.38801 0.34673 0.04500
H 	H 	0.86069 0.57897 0.32716 0.06300
H 	H 	0.81589 0.52925 0.26791 0.08500
H 	H 	0.76250 0.34810 0.36870 0.07200
C 	C 	0.98772 0.80540 0.49454 0.24200
F 	F 	0.91355 0.76122 0.48556 -0.36400
F 	F 	0.98251 0.91516 0.49495 -0.38300
C 	C 	0.99324 0.40614 0.49934 0.22200
F 	F 	0.91642 0.36789 0.50446 -0.37000
F 	F 	0.98558 0.29525 0.52105 -0.39800
C 	C 	0.72992 0.53449 0.49644 -0.20400
F 	F 	0.73901 0.62086 0.53955 -0.35700
C 	C 	0.73646 0.09757 0.98028 0.26600
F 	F 	0.80649 0.13523 0.96359 -0.38700
F 	F 	0.72652 0.20078 0.96391 -0.38000
