data_crystal

_cell_length_a 26.93863
_cell_length_b 27.16407
_cell_length_c 21.70483
_cell_angle_alpha 90.00354
_cell_angle_beta  89.99860
_cell_angle_gamma 89.96320

_symmetry_space_group_name_	'P 1'
_symmetry_space_group_name_H-M	'P 1'

loop_
_symmetry_equiv_pos_as_xyz
  x,y,z

loop_
_atom_site_label
_atom_site_type_symbol
_atom_site_fract_x
_atom_site_fract_y
_atom_site_fract_z
_atom_site_charge
Co	Co	0.95015 0.95499 0.93699 1.18600
Co	Co	0.02507 0.02919 0.08806 1.19500
Co	Co	0.94598 0.95608 0.08719 1.19500
Co	Co	0.03150 0.02423 0.93786 1.18800
C 	C 	0.88892 0.00330 0.83879 0.32200
Co	Co	0.99592 0.98744 0.80393 1.17800
Co	Co	0.97807 0.99712 0.22106 1.17800
C 	C 	0.10240 0.97252 0.84710 0.30400
O 	O 	0.00145 0.92452 0.22052 -0.34600
O 	O 	0.98710 0.99067 0.12543 -0.76700
C 	C 	0.97469 0.88853 0.19640 0.31300
O 	O 	0.91314 0.92880 0.01087 -0.43400
O 	O 	0.05958 0.05773 0.01342 -0.43600
C 	C 	0.08814 0.00898 0.19966 0.32600
O 	O 	0.00240 0.97534 0.01416 -0.56000
C 	C 	0.87233 0.98853 0.17808 0.32300
C 	C 	0.96713 0.88221 0.83342 0.32800
C 	C 	0.00844 0.09236 0.83670 0.32400
O 	O 	0.95297 0.89275 0.14141 -0.35900
O 	O 	0.96154 0.91914 0.79480 -0.37700
O 	O 	0.96289 0.88843 0.89342 -0.38400
O 	O 	0.04989 0.02383 0.23244 -0.38000
O 	O 	0.08647 0.00941 0.13894 -0.37800
O 	O 	0.90446 0.97331 0.21957 -0.37100
O 	O 	0.88667 0.99559 0.12085 -0.38500
O 	O 	0.02794 0.05694 0.80354 -0.37200
O 	O 	0.99903 0.08445 0.89545 -0.38900
O 	O 	0.99587 0.98393 0.90048 -0.77800
C 	C 	0.97998 0.10126 0.17824 0.31400
O 	O 	0.95424 0.06919 0.21058 -0.37100
O 	O 	0.99040 0.09294 0.11960 -0.36900
O 	O 	0.92558 0.01885 0.80337 -0.35200
O 	O 	0.89531 0.99810 0.89869 -0.39600
O 	O 	0.06573 0.95543 0.81222 -0.35500
O 	O 	0.09532 0.00927 0.88698 -0.37200
C 	C 	0.99463 0.59239 0.45912 0.03500
C 	C 	0.99651 0.61762 0.51517 -0.05000
C 	C 	0.00438 0.59254 0.57060 0.03500
C 	C 	0.00914 0.54064 0.57060 0.01000
C 	C 	0.00435 0.51446 0.51450 0.01500
C 	C 	0.99752 0.54032 0.45839 0.00900
C 	C 	0.99275 0.51371 0.40303 -0.01800
C 	C 	0.99399 0.46238 0.40317 -0.02600
C 	C 	0.00109 0.43614 0.45855 0.01600
C 	C 	0.00626 0.46238 0.51455 0.00900
C 	C 	0.01879 0.51456 0.62546 -0.02200
C 	C 	0.02019 0.46326 0.62560 -0.02200
C 	C 	0.01279 0.43659 0.57074 0.01600
C 	C 	0.01209 0.38447 0.57081 0.03100
C 	C 	0.00881 0.35889 0.51502 -0.04500
C 	C 	0.00278 0.38402 0.45917 0.03400
H 	H 	0.98735 0.53260 0.35964 0.06500
H 	H 	0.98909 0.44319 0.35991 0.06300
H 	H 	0.02556 0.53387 0.66825 0.06400
H 	H 	0.02756 0.44441 0.66859 0.06300
H 	H 	0.99266 0.65740 0.51555 0.07100
H 	H 	0.00939 0.31894 0.51523 0.07500
C 	C 	0.59182 0.01084 0.45317 0.02900
C 	C 	0.62088 0.00267 0.50569 -0.03600
C 	C 	0.59902 0.99204 0.56271 0.02700
C 	C 	0.54675 0.98754 0.56731 0.01300
C 	C 	0.51697 0.99667 0.51485 0.00700
C 	C 	0.53935 0.00978 0.45804 0.01700
C 	C 	0.50895 0.02220 0.40760 -0.02400
C 	C 	0.45755 0.01706 0.41135 -0.02100
C 	C 	0.43502 0.00077 0.46631 0.02200
C 	C 	0.46470 0.99255 0.51907 0.00700
C 	C 	0.52387 0.97370 0.62315 -0.02500
C 	C 	0.47226 0.97155 0.62791 -0.02400
C 	C 	0.44212 0.98046 0.57612 0.01500
C 	C 	0.38971 0.97639 0.57960 0.02900
C 	C 	0.36142 0.97936 0.52570 -0.04400
C 	C 	0.38324 0.99258 0.46964 0.02900
H 	H 	0.52492 0.03628 0.36538 0.06600
H 	H 	0.43536 0.02620 0.37137 0.06700
H 	H 	0.54590 0.96403 0.66304 0.06300
H 	H 	0.45601 0.96178 0.67181 0.06200
H 	H 	0.66102 0.00439 0.50211 0.07600
H 	H 	0.32154 0.97403 0.52808 0.06800
C 	C 	0.13681 0.00412 0.23014 -0.09100
C 	C 	0.14152 0.97914 0.28687 0.15100
C 	C 	0.18699 0.97913 0.31773 -0.08400
C 	C 	0.22828 0.00283 0.29216 0.03300
C 	C 	0.22450 0.02533 0.23402 0.08700
C 	C 	0.17878 0.02632 0.20353 -0.00300
H 	H 	0.19023 0.96081 0.36191 0.09100
C 	C 	0.27476 0.00503 0.32766 0.01500
H 	H 	0.17568 0.04514 0.15968 0.07800
C 	C 	0.30572 0.96356 0.32958 -0.06400
C 	C 	0.34344 0.96026 0.37360 0.10500
C 	C 	0.35090 0.99918 0.41540 -0.01000
C 	C 	0.32260 0.04227 0.41012 -0.05600
C 	C 	0.28430 0.04521 0.36690 0.10400
H 	H 	0.29885 0.93284 0.29888 0.09000
H 	H 	0.32880 0.07256 0.44170 0.08800
Br	Br	0.28126 0.05525 0.19586 -0.16200
Br	Br	0.08734 0.94265 0.32172 -0.20400
Br	Br	0.38279 0.90141 0.37800 -0.19300
Br	Br	0.24342 0.10313 0.36465 -0.17100
C 	C 	0.15442 0.95859 0.83102 -0.08700
C 	C 	0.16448 0.92287 0.78521 0.14900
C 	C 	0.20999 0.92382 0.75408 -0.08100
C 	C 	0.24810 0.95543 0.77356 0.03300
C 	C 	0.24112 0.98409 0.82697 0.08000
C 	C 	0.19419 0.98641 0.85468 -0.01300
H 	H 	0.21582 0.89973 0.71493 0.09500
C 	C 	0.29216 0.96301 0.73356 0.00800
H 	H 	0.18843 0.01086 0.89345 0.07700
C 	C 	0.29963 0.00908 0.70573 -0.05500
C 	C 	0.33603 0.01505 0.66042 0.10800
C 	C 	0.36327 0.97405 0.63951 -0.01000
C 	C 	0.35769 0.92857 0.66944 -0.06000
C 	C 	0.32346 0.92333 0.71767 0.10200
H 	H 	0.27626 0.03999 0.71824 0.09000
H 	H 	0.37926 0.89707 0.65447 0.08100
Br	Br	0.29533 0.01965 0.86320 -0.17900
Br	Br	0.12080 0.86798 0.77153 -0.20200
Br	Br	0.34686 0.07921 0.62581 -0.19400
Br	Br	0.32095 0.86235 0.76226 -0.18400
C 	C 	0.61716 0.01656 0.39265 -0.00100
C 	C 	0.65206 0.05451 0.38352 0.10300
C 	C 	0.68627 0.05122 0.33515 -0.05700
C 	C 	0.68345 0.01241 0.29251 0.01400
C 	C 	0.64368 0.97882 0.29642 0.10000
C 	C 	0.61215 0.97968 0.34771 -0.06200
H 	H 	0.71600 0.07794 0.33189 0.09000
C 	C 	0.72654 0.00206 0.25180 0.04000
H 	H 	0.58440 0.95115 0.35325 0.08400
C 	C 	0.75345 0.95827 0.25995 -0.08600
C 	C 	0.79824 0.95086 0.22888 0.15700
C 	C 	0.81907 0.98932 0.19381 -0.09900
C 	C 	0.79075 0.03167 0.18203 0.00300
C 	C 	0.74402 0.03764 0.20966 0.07900
H 	H 	0.73977 0.93014 0.29101 0.09800
H 	H 	0.80559 0.06059 0.15299 0.07900
Br	Br	0.63163 0.93198 0.23190 -0.17100
Br	Br	0.65348 0.11099 0.43665 -0.19100
Br	Br	0.82897 0.88707 0.23205 -0.18400
Br	Br	0.70415 0.09360 0.18795 -0.16500
C 	C 	0.63141 0.98814 0.61766 -0.00900
C 	C 	0.66759 0.95082 0.62159 0.10500
C 	C 	0.70467 0.95364 0.66646 -0.05800
C 	C 	0.70388 0.99136 0.71065 0.00900
C 	C 	0.66456 0.02560 0.71066 0.10400
C 	C 	0.62973 0.02504 0.66290 -0.05600
H 	H 	0.73447 0.92681 0.66657 0.09400
C 	C 	0.74706 0.99800 0.75188 0.02800
H 	H 	0.60137 0.05331 0.66084 0.08200
C 	C 	0.77685 0.04011 0.74571 -0.07500
C 	C 	0.82083 0.04454 0.77936 0.15600
C 	C 	0.83797 0.00443 0.81457 -0.08700
C 	C 	0.80711 0.96347 0.82333 -0.01000
C 	C 	0.76121 0.96067 0.79343 0.08700
H 	H 	0.76553 0.06963 0.71518 0.09600
H 	H 	0.81918 0.93339 0.85255 0.07000
Br	Br	0.65699 0.07233 0.77638 -0.18100
Br	Br	0.66649 0.89545 0.56661 -0.19300
Br	Br	0.85313 0.10745 0.78315 -0.17900
Br	Br	0.71780 0.90646 0.81124 -0.17700
C 	C 	0.99741 0.35493 0.40190 -0.01000
C 	C 	0.95331 0.32880 0.39003 0.10500
C 	C 	0.95224 0.29340 0.34330 -0.06000
C 	C 	0.99464 0.28443 0.30752 0.00800
C 	C 	0.03674 0.31460 0.31470 0.11000
C 	C 	0.03839 0.34893 0.36272 -0.05600
H 	H 	0.91916 0.27138 0.33652 0.08600
C 	C 	0.99699 0.23946 0.26946 0.03100
H 	H 	0.07191 0.37006 0.37054 0.08100
C 	C 	0.97045 0.23723 0.21389 -0.08200
C 	C 	0.96609 0.19260 0.18196 0.15400
C 	C 	0.98959 0.15001 0.20502 -0.09600
C 	C 	0.01809 0.15298 0.25890 -0.00900
C 	C 	0.02115 0.19704 0.29175 0.08900
H 	H 	0.95162 0.26973 0.19676 0.09500
H 	H 	0.03623 0.12033 0.27675 0.07100
Br	Br	0.09273 0.30824 0.26060 -0.16900
Br	Br	0.89462 0.34031 0.43811 -0.18000
Br	Br	0.92511 0.18999 0.10963 -0.17800
Br	Br	0.05570 0.19767 0.36922 -0.17900
C 	C 	0.01187 0.35594 0.62905 -0.00500
C 	C 	0.96681 0.34546 0.65926 0.10300
C 	C 	0.96540 0.30953 0.70550 -0.06200
C 	C 	0.00840 0.28316 0.72105 0.01400
C 	C 	0.05419 0.29679 0.69470 0.10500
C 	C 	0.05574 0.33319 0.64906 -0.06100
H 	H 	0.93021 0.29981 0.72642 0.09000
C 	C 	0.00339 0.23531 0.75291 0.03400
H 	H 	0.09068 0.34194 0.62688 0.08200
C 	C 	0.99099 0.19361 0.71840 -0.08300
C 	C 	0.98965 0.14714 0.74584 0.15900
C 	C 	0.00142 0.14186 0.80915 -0.08800
C 	C 	0.01123 0.18417 0.84446 -0.00300
C 	C 	0.01214 0.23081 0.81662 0.08800
H 	H 	0.98297 0.19725 0.66967 0.09300
H 	H 	0.01969 0.18075 0.89308 0.07500
Br	Br	0.11444 0.26367 0.71742 -0.18000
Br	Br	0.90631 0.37749 0.63517 -0.18200
Br	Br	0.97037 0.09197 0.69570 -0.21200
Br	Br	0.02617 0.28770 0.86603 -0.17600
C 	C 	0.99152 0.62158 0.40161 -0.01100
C 	C 	0.94498 0.63594 0.37812 0.10400
C 	C 	0.94190 0.67466 0.33571 -0.06000
C 	C 	0.98489 0.69968 0.31708 0.00900
C 	C 	0.03170 0.68272 0.33679 0.10800
C 	C 	0.03480 0.64335 0.37821 -0.05500
H 	H 	0.90586 0.68696 0.31970 0.09000
C 	C 	0.98016 0.74752 0.28517 0.03300
H 	H 	0.07075 0.63189 0.39546 0.08600
C 	C 	0.96965 0.78989 0.31965 -0.08000
C 	C 	0.96632 0.83586 0.29093 0.15800
C 	C 	0.97499 0.83996 0.22700 -0.08100
C 	C 	0.98431 0.79730 0.19224 -0.00300
C 	C 	0.98641 0.75114 0.22093 0.08900
H 	H 	0.96376 0.78703 0.36893 0.09100
H 	H 	0.99036 0.80002 0.14299 0.07800
Br	Br	0.09157 0.71502 0.31102 -0.17100
Br	Br	0.88509 0.60500 0.40624 -0.19000
Br	Br	0.94668 0.89185 0.33931 -0.20500
Br	Br	0.99766 0.69350 0.17169 -0.16400
C 	C 	0.97003 0.83182 0.80898 -0.10000
C 	C 	0.93783 0.81596 0.76177 0.15600
C 	C 	0.94581 0.77045 0.73349 -0.08200
C 	C 	0.98358 0.73905 0.75445 0.03200
C 	C 	0.01282 0.75307 0.80528 0.08600
C 	C 	0.00637 0.79959 0.83174 0.00400
H 	H 	0.92256 0.75938 0.69517 0.09400
C 	C 	0.99495 0.69385 0.71944 0.00800
H 	H 	0.03018 0.81100 0.86937 0.07300
C 	C 	0.03828 0.69188 0.68365 -0.05500
C 	C 	0.04423 0.65509 0.63928 0.10300
C 	C 	0.00561 0.62131 0.62843 -0.00500
C 	C 	0.96422 0.62075 0.66764 -0.06400
C 	C 	0.95935 0.65615 0.71401 0.10400
H 	H 	0.06644 0.72007 0.68869 0.09300
H 	H 	0.93508 0.59382 0.66074 0.08400
Br	Br	0.06100 0.70889 0.83984 -0.17600
Br	Br	0.88034 0.85375 0.73887 -0.20000
Br	Br	0.10470 0.65230 0.59260 -0.19400
Br	Br	0.90369 0.65286 0.76909 -0.18200
